test/data/enwl/networks/network_20/Feeder_4/Lines.txt
New Line.LINE1 Bus1=1 Bus2=2 phases=3 Linecode=4c_.3 Length=0.49926 Units=m
New Line.LINE2 Bus1=2 Bus2=3 phases=3 Linecode=4c_.3 Length=0.058695 Units=m
New Line.LINE3 Bus1=3 Bus2=4 phases=3 Linecode=4c_.3 Length=0.051243 Units=m
New Line.LINE4 Bus1=4 Bus2=5 phases=3 Linecode=4c_.3 Length=0.063389 Units=m
New Line.LINE5 Bus1=5 Bus2=6 phases=3 Linecode=4c_.3 Length=0.06237 Units=m
New Line.LINE6 Bus1=6 Bus2=7 phases=3 Linecode=4c_.3 Length=0.074673 Units=m
New Line.LINE7 Bus1=7 Bus2=8 phases=3 Linecode=4c_.3 Length=0.069065 Units=m
New Line.LINE8 Bus1=8 Bus2=9 phases=3 Linecode=4c_.3 Length=0.090604 Units=m
New Line.LINE9 Bus1=9 Bus2=10 phases=3 Linecode=4c_.3 Length=1.3504 Units=m
New Line.LINE10 Bus1=10 Bus2=11 phases=3 Linecode=4c_.3 Length=0.039357 Units=m
New Line.LINE11 Bus1=11 Bus2=12 phases=3 Linecode=4c_.3 Length=0.047011 Units=m
New Line.LINE12 Bus1=12 Bus2=13 phases=3 Linecode=4c_.3 Length=0.044777 Units=m
New Line.LINE13 Bus1=13 Bus2=14 phases=3 Linecode=4c_.3 Length=0.041231 Units=m
New Line.LINE14 Bus1=14 Bus2=15 phases=3 Linecode=4c_.3 Length=2.0256 Units=m
New Line.LINE15 Bus1=15 Bus2=16 phases=3 Linecode=4c_.3 Length=0.098087 Units=m
New Line.LINE16 Bus1=16 Bus2=17 phases=3 Linecode=4c_.3 Length=0.098111 Units=m
New Line.LINE17 Bus1=17 Bus2=18 phases=3 Linecode=4c_.3 Length=7.8282 Units=m
New Line.LINE18 Bus1=18 Bus2=19 phases=3 Linecode=4c_.3 Length=4.9635 Units=m
New Line.LINE19 Bus1=19 Bus2=20 phases=3 Linecode=4c_.3 Length=2.2863 Units=m
New Line.LINE20 Bus1=20 Bus2=21 phases=3 Linecode=4c_.3 Length=0.36177 Units=m
New Line.LINE21 Bus1=21 Bus2=22 phases=3 Linecode=4c_.3 Length=0.30401 Units=m
New Line.LINE22 Bus1=22 Bus2=23 phases=3 Linecode=4c_.3 Length=0.279 Units=m
New Line.LINE23 Bus1=23 Bus2=24 phases=3 Linecode=4c_.3 Length=0.20354 Units=m
New Line.LINE24 Bus1=24 Bus2=25 phases=3 Linecode=4c_.3 Length=0.25491 Units=m
New Line.LINE25 Bus1=25 Bus2=26 phases=3 Linecode=4c_.3 Length=1.2805 Units=m
New Line.LINE26 Bus1=26 Bus2=27 phases=3 Linecode=4c_.3 Length=0.37643 Units=m
New Line.LINE27 Bus1=27 Bus2=28 phases=3 Linecode=4c_.3 Length=0.33403 Units=m
New Line.LINE28 Bus1=28 Bus2=29 phases=3 Linecode=4c_.3 Length=0.30836 Units=m
New Line.LINE29 Bus1=29 Bus2=30 phases=3 Linecode=4c_.3 Length=0.27334 Units=m
New Line.LINE30 Bus1=30 Bus2=31 phases=3 Linecode=4c_.3 Length=0.27084 Units=m
New Line.LINE31 Bus1=31 Bus2=32 phases=3 Linecode=4c_.3 Length=0.253 Units=m
New Line.LINE32 Bus1=32 Bus2=33 phases=3 Linecode=4c_.3 Length=0.89608 Units=m
New Line.LINE33 Bus1=33 Bus2=34 phases=3 Linecode=4c_.3 Length=6.9672 Units=m
New Line.LINE34 Bus1=34 Bus2=35 phases=3 Linecode=4c_.3 Length=7.4258 Units=m
New Line.LINE35 Bus1=35 Bus2=36 phases=3 Linecode=4c_.3 Length=0.38815 Units=m
New Line.LINE36 Bus1=36 Bus2=37 phases=3 Linecode=4c_.3 Length=0.39388 Units=m
New Line.LINE37 Bus1=37 Bus2=38 phases=3 Linecode=4c_.3 Length=0.29362 Units=m
New Line.LINE38 Bus1=38 Bus2=39 phases=3 Linecode=4c_.3 Length=0.26267 Units=m
New Line.LINE39 Bus1=39 Bus2=40 phases=3 Linecode=4c_.3 Length=0.573 Units=m
New Line.LINE40 Bus1=40 Bus2=41 phases=3 Linecode=4c_.3 Length=3.2266 Units=m
New Line.LINE41 Bus1=41 Bus2=42 phases=3 Linecode=25_SAC_XC Length=5.583 Units=m
New Line.LINE42 Bus1=41 Bus2=43 phases=3 Linecode=25_SAC_XC Length=5.583 Units=m
New Line.LINE43 Bus1=41 Bus2=44 phases=3 Linecode=25_SAC_XC Length=5.583 Units=m
New Line.LINE44 Bus1=41 Bus2=45 phases=3 Linecode=25_SAC_XC Length=5.583 Units=m
New Line.LINE45 Bus1=41 Bus2=46 phases=3 Linecode=25_SAC_XC Length=5.583 Units=m
New Line.LINE46 Bus1=41 Bus2=47 phases=3 Linecode=25_SAC_XC Length=5.583 Units=m
New Line.LINE47 Bus1=41 Bus2=48 phases=3 Linecode=25_SAC_XC Length=5.583 Units=m
New Line.LINE48 Bus1=41 Bus2=49 phases=3 Linecode=25_SAC_XC Length=5.583 Units=m
New Line.LINE49 Bus1=41 Bus2=50 phases=3 Linecode=25_SAC_XC Length=5.583 Units=m
New Line.LINE50 Bus1=41 Bus2=51 phases=3 Linecode=25_SAC_XC Length=5.583 Units=m
New Line.LINE51 Bus1=41 Bus2=52 phases=3 Linecode=25_SAC_XC Length=5.583 Units=m
New Line.LINE52 Bus1=41 Bus2=53 phases=3 Linecode=25_SAC_XC Length=5.583 Units=m
New Line.LINE53 Bus1=41 Bus2=54 phases=3 Linecode=25_SAC_XC Length=5.583 Units=m
New Line.LINE54 Bus1=41 Bus2=55 phases=3 Linecode=25_SAC_XC Length=5.583 Units=m
New Line.LINE55 Bus1=41 Bus2=56 phases=3 Linecode=25_SAC_XC Length=5.583 Units=m
New Line.LINE56 Bus1=41 Bus2=57 phases=3 Linecode=25_SAC_XC Length=5.583 Units=m
New Line.LINE57 Bus1=41 Bus2=58 phases=3 Linecode=25_SAC_XC Length=5.583 Units=m
New Line.LINE58 Bus1=41 Bus2=59 phases=3 Linecode=25_SAC_XC Length=5.583 Units=m
New Line.LINE59 Bus1=41 Bus2=60 phases=3 Linecode=25_SAC_XC Length=6.2452 Units=m
New Line.LINE60 Bus1=41 Bus2=61 phases=3 Linecode=25_SAC_XC Length=6.2452 Units=m
New Line.LINE61 Bus1=41 Bus2=62 phases=3 Linecode=25_SAC_XC Length=6.2452 Units=m
New Line.LINE62 Bus1=41 Bus2=63 phases=3 Linecode=25_SAC_XC Length=5.583 Units=m
New Line.LINE63 Bus1=41 Bus2=64 phases=3 Linecode=25_SAC_XC Length=5.583 Units=m
New Line.LINE64 Bus1=41 Bus2=65 phases=3 Linecode=25_SAC_XC Length=5.583 Units=m
New Line.LINE65 Bus1=41 Bus2=66 phases=3 Linecode=25_SAC_XC Length=5.583 Units=m
New Line.LINE66 Bus1=41 Bus2=67 phases=3 Linecode=25_SAC_XC Length=5.583 Units=m
New Line.LINE67 Bus1=41 Bus2=68 phases=3 Linecode=25_SAC_XC Length=5.583 Units=m
New Line.LINE68 Bus1=41 Bus2=69 phases=3 Linecode=25_SAC_XC Length=5.583 Units=m
New Line.LINE69 Bus1=41 Bus2=70 phases=3 Linecode=25_SAC_XC Length=5.583 Units=m
